/*--------------------------------*- C++ -*----------------------------------*\
| =========                 |                                                 |
| \\      /  F ield         | OpenFOAM: The Open Source CFD Toolbox           |
|  \\    /   O peration     | Version:  2.2.2                                 |
|   \\  /    A nd           | Web:      www.OpenFOAM.org                      |
|    \\/     M anipulation  |                                                 |
\*---------------------------------------------------------------------------*/
FoamFile
{
    version     2.0;
    format      ascii;
    class       dictionary;
    object      blockMeshDict;
}
// * * * * * * * * * * * * * * * * * * * * * * * * * * * * * * * * * * * * * //

convertToMeters 1;

vertices
(
    (0 0 0)
    (4 0 0)
    (4 0.1 0)
    (0 0.1 0)
    (0 0 0.25)
    (4 0 0.25)
    (4 0.1 0.25)
    (0 0.1 0.25)
);

blocks
(
    hex (0 1 2 3 4 5 6 7) (1000 150 80) simpleGrading (1 7 1)
);

edges
(
);

boundary
(
    inlet
    {
        type wall;
        faces
        (
            (0 4 7 3)
        );
    }
    outlet
    {
        type wall;
        faces
        (
            (2 6 5 1)
        );
    }
    bottom
    {
        type wall;
        faces
        (
            (1 5 4 0)
        );
    }
    top
    {
	type patch;
	faces
	(
	    (3 7 6 2)
	);
    }
    front
    {
	type cyclic;
	neighbourPatch back;
	faces
	(
	    (0 3 2 1)
	);
    }
    back
    {
	type cyclic;
	neighbourPatch front;
	faces
	(
	    (4 5 6 7)
	);
    }

);

mergePatchPairs
(
);

// ************************************************************************* //
