/*--------------------------------*- C++ -*----------------------------------*\
  =========                 |
  \\      /  F ield         | OpenFOAM: The Open Source CFD Toolbox
   \\    /   O peration     | Website:  https://openfoam.org
    \\  /    A nd           | Version:  8
     \\/     M anipulation  |
\*---------------------------------------------------------------------------*/
FoamFile
{
    version     2.0;
    format      ascii;
    class       dictionary;
    location    "system";
    object      fvSchemes;
}
// * * * * * * * * * * * * * * * * * * * * * * * * * * * * * * * * * * * * * //

ddtSchemes
{
    default         bounded backward;
}

gradSchemes
{
    default         Gauss linear;
}

divSchemes
{
    default         none;

    div(phi,U)      bounded Gauss SFCD;//cubic;
    div(phi,D)      Gauss vanLeer;//cubic;

    div(phi,k)      bounded Gauss SFCD;//cubic;
    div(phi,epsilon) bounded Gauss SFCD;//cubic;

    div((nuEff*dev(T(grad(U))))) Gauss linear;
}

laplacianSchemes
{
    default        none;
    laplacian(nuEff,U) Gauss linear corrected; 
    laplacian(Dp,p_rgh) Gauss linear corrected;  
    laplacian(alphaEff,D) Gauss linear corrected;   
    laplacian(DkEff,k) Gauss linear corrected;  
    laplacian(DepsilonEff,epsilon) Gauss linear corrected;   
    laplacian(DREff,R) Gauss linear corrected;  
}

interpolationSchemes
{
    default         linear;
}

snGradSchemes
{
    default         corrected;
}

fluxRequired
{
    default	    no;
    p_rgh	    ;
}

// ************************************************************************* //
