/*--------------------------------*- C++ -*----------------------------------*\
  =========                 |
  \\      /  F ield         | OpenFOAM: The Open Source CFD Toolbox
   \\    /   O peration     | Version:  2.2.2
    \\  /    A nd           | Web:  	www.OpenFOAM.org 
     \\/     M anipulation  |
\*---------------------------------------------------------------------------*/
FoamFile
{
    version     2.0;
    format      ascii;
    class       dictionary;
    object      refineMeshDict;
}

// * * * * * * * * * * * * * * * * * * * * * * * * * * * * * * * * * * * * * //

//Cells to refine; name of cell set
set IBs;
coordinateSystem global;
globalCoeffs
{
  tan1	(1 0 0);
  tan2  (0 0 1);
}
directions
(
    tan1
    tan2
    normal
);
useHexTopology	true;
geometricCut	false;
writeMesh	false;

//****************************************************************************//
